#p opt=(calcfc,ts,noeigentest) rb3lyp/6-31g(d,p) empiricaldispersion=gd3

Chorismate TS guess

-2 1
 C                 -1.37744800    0.01329800   -0.40699500
 C                 -0.47307000    0.20100500   -1.55931400
 C                 -1.38343000    1.00671000    0.56888900
 C                  0.49252700    1.12437800   -1.54929400
 H                 -0.64986700   -0.45108900   -2.40829800
 C                 -2.63290000   -0.86027000   -0.57342300
 C                 -0.18553600    1.68355200    0.79941300
 H                 -2.15994100    0.99811700    1.32502800
 C                  0.77868300    1.96547500   -0.34217000
 H                  1.14999700    1.26988400   -2.40155500
 O                 -2.84789900   -1.30692700   -1.71747100
 O                 -3.32339500   -1.02728900    0.47166500
 H                 -0.14355000    2.41470200    1.60541400
 O                  0.68752500    3.35602600   -0.74021100
 H                  1.79670600    1.75341000    0.00481700
 H                  1.10194800    3.86926300   -0.03677000
 C                 -0.19338100   -1.55282500    0.70524400
 C                  0.88320900   -0.71586400    0.95696600
 H                 -0.04400200   -2.37291200    0.01138100
 H                 -1.03177100   -1.61255700    1.38471600
 C                  2.19466700   -0.90745200    0.15766200
 O                  0.75281000    0.31616100    1.72463300
 O                  3.04341900    0.02642500    0.22267300
 O                  2.30369400   -1.99255000   -0.45454800
 O                 -2.34270200   -0.58613100    3.12647000
 H                 -1.44920000   -0.29321800    2.90323600
 H                 -2.74472600   -0.76476600    2.25138500
 O                  5.62134600   -0.95335600    1.03905000
 H                  4.74512500   -0.53410500    1.07571800
 H                  5.57153600   -1.33778200    0.14915800
 O                  4.68550700   -1.33777200   -1.64512500
 H                  3.90110100   -1.85633300   -1.36020900
 H                  4.39544600   -0.49387700   -1.25882000
 O                 -2.02433300    4.10490300   -0.24911700
 H                 -1.14372100    3.91087800   -0.60972600
 H                 -2.36262500    3.21663800   -0.08230100
 O                 -5.31162200   -2.48965700   -0.95048000
 H                 -4.58863500   -2.25548900   -1.55736100
 H                 -4.91855800   -2.08745100   -0.15798400

